**************************************
*      Model Generated by MODPEX     *
*Copyright(c) Symmetry Design Systems*
*         All Rights Reserved        *
*    UNPUBLISHED LICENSED SOFTWARE   *
*   Contains Proprietary Information *
*      Which is The Property of      *
*     SYMMETRY OR ITS LICENSORS      *
*Commercial Use or Resale Restricted *
*   by Symmetry License Agreement    *
**************************************
* Model generated on Feb  4, 03
* MODEL FORMAT: PSpice
.MODEL Dmbr120vlsft1 d
+IS=1.75638e-05 RS=0.0175923 N=1.04878 EG=0.621492
+XTI=1.80698 BV=20 IBV=0.0001 CJO=4.9761e-10
+VJ=0.4 M=0.492923 FC=0.5 TT=0
+KF=0 AF=1

